*SPEF "IEEE 1481-1998"
*DESIGN "FIR8_nbit7_TOT"
*DATE "Mon Nov 16 21:36:52 2020"
*VENDOR "Cadence Design Systems, Inc."
*PROGRAM "Innovus"
*VERSION "17.11-s080_1"
*DESIGN_FLOW "COUPLING C" "PIN_CAP NONE" "NAME_SCOPE LOCAL"
*DIVIDER /
*DELIMITER :
*BUS_DELIMITER []
*T_UNIT 1 NS
*C_UNIT 1 PF
*R_UNIT 1 OHM
*L_UNIT 1 HENRY

// MMMC spef file for corner 'my_rc'

*NAME_MAP

*1 DIN[7]
*2 DIN[6]
*3 DIN[5]
*4 DIN[4]
*5 DIN[3]
*6 DIN[2]
*7 DIN[1]
*8 DIN[0]
*9 VIN
*10 rst_n
*11 clk
*12 b0[7]
*13 b0[6]
*14 b0[5]
*15 b0[4]
*16 b0[3]
*17 b0[2]
*18 b0[1]
*19 b0[0]
*20 b1[7]
*21 b1[6]
*22 b1[5]
*23 b1[4]
*24 b1[3]
*25 b1[2]
*26 b1[1]
*27 b1[0]
*28 b2[7]
*29 b2[6]
*30 b2[5]
*31 b2[4]
*32 b2[3]
*33 b2[2]
*34 b2[1]
*35 b2[0]
*36 b3[7]
*37 b3[6]
*38 b3[5]
*39 b3[4]
*40 b3[3]
*41 b3[2]
*42 b3[1]
*43 b3[0]
*44 b4[7]
*45 b4[6]
*46 b4[5]
*47 b4[4]
*48 b4[3]
*49 b4[2]
*50 b4[1]
*51 b4[0]
*52 b5[7]
*53 b5[6]
*54 b5[5]
*55 b5[4]
*56 b5[3]
*57 b5[2]
*58 b5[1]
*59 b5[0]
*60 b6[7]
*61 b6[6]
*62 b6[5]
*63 b6[4]
*64 b6[3]
*65 b6[2]
*66 b6[1]
*67 b6[0]
*68 b7[7]
*69 b7[6]
*70 b7[5]
*71 b7[4]
*72 b7[3]
*73 b7[2]
*74 b7[1]
*75 b7[0]
*76 b8[7]
*77 b8[6]
*78 b8[5]
*79 b8[4]
*80 b8[3]
*81 b8[2]
*82 b8[1]
*83 b8[0]
*84 DOUT[7]
*85 DOUT[6]
*86 DOUT[5]
*87 DOUT[4]
*88 DOUT[3]
*89 DOUT[2]
*90 DOUT[1]
*91 VOUT
*92 FE_DBTN7_reg_rst_n
*93 FE_DBTN6_datapath_FIR_x8_3
*94 FE_DBTN5_datapath_FIR_x5_3
*95 FE_DBTN4_datapath_FIR_x5_5
*96 FE_DBTN3_datapath_FIR_mult_210_n54
*97 FE_DBTN2_datapath_FIR_x3_1
*98 FE_DBTN1_datapath_FIR_x3_4
*99 FE_DBTN0_datapath_FIR_mult_212_n54
*100 reg_coeff_en
*101 reg_out_en
*102 reg_rst_n
*103 datapath_FIR_M0_10_
*104 datapath_FIR_M0_11_
*105 datapath_FIR_M0_12_
*106 datapath_FIR_M0_6_
*107 datapath_FIR_M0_7_
*108 datapath_FIR_M0_8_
*109 datapath_FIR_M0_9_
*110 datapath_FIR_M1_10_
*111 datapath_FIR_M1_11_
*112 datapath_FIR_M1_12_
*113 datapath_FIR_M1_6_
*114 datapath_FIR_M1_7_
*115 datapath_FIR_M1_8_
*116 datapath_FIR_M1_9_
*117 datapath_FIR_M2_10_
*118 datapath_FIR_M2_11_
*119 datapath_FIR_M2_12_
*120 datapath_FIR_M2_6_
*121 datapath_FIR_M2_7_
*122 datapath_FIR_M2_8_
*123 datapath_FIR_M2_9_
*124 datapath_FIR_M3_10_
*125 datapath_FIR_M3_11_
*126 datapath_FIR_M3_12_
*127 datapath_FIR_M3_6_
*128 datapath_FIR_M3_7_
*129 datapath_FIR_M3_8_
*130 datapath_FIR_M3_9_
*131 datapath_FIR_M4_10_
*132 datapath_FIR_M4_11_
*133 datapath_FIR_M4_12_
*134 datapath_FIR_M4_6_
*135 datapath_FIR_M4_7_
*136 datapath_FIR_M4_8_
*137 datapath_FIR_M4_9_
*138 datapath_FIR_M5_10_
*139 datapath_FIR_M5_11_
*140 datapath_FIR_M5_12_
*141 datapath_FIR_M5_6_
*142 datapath_FIR_M5_7_
*143 datapath_FIR_M5_8_
*144 datapath_FIR_M5_9_
*145 datapath_FIR_M6_10_
*146 datapath_FIR_M6_11_
*147 datapath_FIR_M6_12_
*148 datapath_FIR_M6_6_
*149 datapath_FIR_M6_7_
*150 datapath_FIR_M6_8_
*151 datapath_FIR_M6_9_
*152 datapath_FIR_M7_10_
*153 datapath_FIR_M7_11_
*154 datapath_FIR_M7_12_
*155 datapath_FIR_M7_6_
*156 datapath_FIR_M7_7_
*157 datapath_FIR_M7_8_
*158 datapath_FIR_M7_9_
*159 datapath_FIR_M8_10_
*160 datapath_FIR_M8_11_
*161 datapath_FIR_M8_12_
*162 datapath_FIR_M8_6_
*163 datapath_FIR_M8_7_
*164 datapath_FIR_M8_8_
*165 datapath_FIR_M8_9_
*166 datapath_FIR_S0_0_
*167 datapath_FIR_S0_1_
*168 datapath_FIR_S0_2_
*169 datapath_FIR_S0_3_
*170 datapath_FIR_S0_4_
*171 datapath_FIR_S0_5_
*172 datapath_FIR_S0_6_
*173 datapath_FIR_S1_0_
*174 datapath_FIR_S1_1_
*175 datapath_FIR_S1_2_
*176 datapath_FIR_S1_3_
*177 datapath_FIR_S1_4_
*178 datapath_FIR_S1_5_
*179 datapath_FIR_S1_6_
*180 datapath_FIR_S2_0_
*181 datapath_FIR_S2_1_
*182 datapath_FIR_S2_2_
*183 datapath_FIR_S2_3_
*184 datapath_FIR_S2_4_
*185 datapath_FIR_S2_5_
*186 datapath_FIR_S2_6_
*187 datapath_FIR_S3_0_
*188 datapath_FIR_S3_1_
*189 datapath_FIR_S3_2_
*190 datapath_FIR_S3_3_
*191 datapath_FIR_S3_4_
*192 datapath_FIR_S3_5_
*193 datapath_FIR_S3_6_
*194 datapath_FIR_S4_0_
*195 datapath_FIR_S4_1_
*196 datapath_FIR_S4_2_
*197 datapath_FIR_S4_3_
*198 datapath_FIR_S4_4_
*199 datapath_FIR_S4_5_
*200 datapath_FIR_S4_6_
*201 datapath_FIR_S5_0_
*202 datapath_FIR_S5_1_
*203 datapath_FIR_S5_2_
*204 datapath_FIR_S5_3_
*205 datapath_FIR_S5_4_
*206 datapath_FIR_S5_5_
*207 datapath_FIR_S5_6_
*208 datapath_FIR_S6_0_
*209 datapath_FIR_S6_1_
*210 datapath_FIR_S6_2_
*211 datapath_FIR_S6_3_
*212 datapath_FIR_S6_4_
*213 datapath_FIR_S6_5_
*214 datapath_FIR_S6_6_
*215 datapath_FIR_Reg_in_n7
*216 datapath_FIR_Reg_in_n6
*217 datapath_FIR_Reg_in_n5
*218 datapath_FIR_Reg_in_n4
*219 datapath_FIR_Reg_in_n3
*220 datapath_FIR_Reg_in_n2
*221 datapath_FIR_Reg_in_n1
*222 datapath_FIR_Reg_in_n17
*223 datapath_FIR_Reg_in_n16
*224 datapath_FIR_Reg_in_n15
*225 datapath_FIR_Reg_in_n14
*226 datapath_FIR_Reg_in_n13
*227 datapath_FIR_Reg_in_n12
*228 datapath_FIR_Reg_in_n11
*229 datapath_FIR_Reg_in_n10
*230 datapath_FIR_Reg_in_n9
*231 datapath_FIR_Reg_coeff0_n26
*232 datapath_FIR_Reg_coeff0_n25
*233 datapath_FIR_Reg_coeff0_n24
*234 datapath_FIR_Reg_coeff0_n23
*235 datapath_FIR_Reg_coeff0_n22
*236 datapath_FIR_Reg_coeff0_n21
*237 datapath_FIR_Reg_coeff0_n20
*238 datapath_FIR_Reg_coeff0_n19
*239 datapath_FIR_Reg_coeff0_n18
*240 datapath_FIR_Reg_coeff0_n7
*241 datapath_FIR_Reg_coeff0_n6
*242 datapath_FIR_Reg_coeff0_n5
*243 datapath_FIR_Reg_coeff0_n4
*244 datapath_FIR_Reg_coeff0_n3
*245 datapath_FIR_Reg_coeff0_n2
*246 datapath_FIR_Reg_coeff0_n1
*247 datapath_FIR_Reg_coeff1_n26
*248 datapath_FIR_Reg_coeff1_n25
*249 datapath_FIR_Reg_coeff1_n24
*250 datapath_FIR_Reg_coeff1_n23
*251 datapath_FIR_Reg_coeff1_n22
*252 datapath_FIR_Reg_coeff1_n21
*253 datapath_FIR_Reg_coeff1_n20
*254 datapath_FIR_Reg_coeff1_n19
*255 datapath_FIR_Reg_coeff1_n18
*256 datapath_FIR_Reg_coeff1_n7
*257 datapath_FIR_Reg_coeff1_n6
*258 datapath_FIR_Reg_coeff1_n5
*259 datapath_FIR_Reg_coeff1_n4
*260 datapath_FIR_Reg_coeff1_n3
*261 datapath_FIR_Reg_coeff1_n2
*262 datapath_FIR_Reg_coeff1_n1
*263 datapath_FIR_Reg_coeff2_n26
*264 datapath_FIR_Reg_coeff2_n25
*265 datapath_FIR_Reg_coeff2_n24
*266 datapath_FIR_Reg_coeff2_n23
*267 datapath_FIR_Reg_coeff2_n22
*268 datapath_FIR_Reg_coeff2_n21
*269 datapath_FIR_Reg_coeff2_n20
*270 datapath_FIR_Reg_coeff2_n19
*271 datapath_FIR_Reg_coeff2_n18
*272 datapath_FIR_Reg_coeff2_n7
*273 datapath_FIR_Reg_coeff2_n6
*274 datapath_FIR_Reg_coeff2_n5
*275 datapath_FIR_Reg_coeff2_n4
*276 datapath_FIR_Reg_coeff2_n3
*277 datapath_FIR_Reg_coeff2_n2
*278 datapath_FIR_Reg_coeff2_n1
*279 datapath_FIR_Reg_coeff3_n30
*280 datapath_FIR_Reg_coeff3_n29
*281 datapath_FIR_Reg_coeff3_n28
*282 datapath_FIR_Reg_coeff3_n27
*283 datapath_FIR_Reg_coeff3_n26
*284 datapath_FIR_Reg_coeff3_n25
*285 datapath_FIR_Reg_coeff3_n24
*286 datapath_FIR_Reg_coeff3_n23
*287 datapath_FIR_Reg_coeff3_n22
*288 datapath_FIR_Reg_coeff3_n20
*289 datapath_FIR_Reg_coeff3_n19
*290 datapath_FIR_Reg_coeff3_n18
*291 datapath_FIR_Reg_coeff3_n8
*292 datapath_FIR_Reg_coeff3_n7
*293 datapath_FIR_Reg_coeff3_n6
*294 datapath_FIR_Reg_coeff3_n5
*295 datapath_FIR_Reg_coeff3_n4
*296 datapath_FIR_Reg_coeff3_n3
*297 datapath_FIR_Reg_coeff3_n2
*298 datapath_FIR_Reg_coeff3_n1
*299 datapath_FIR_Reg_coeff4_n26
*300 datapath_FIR_Reg_coeff4_n25
*301 datapath_FIR_Reg_coeff4_n24
*302 datapath_FIR_Reg_coeff4_n23
*303 datapath_FIR_Reg_coeff4_n22
*304 datapath_FIR_Reg_coeff4_n21
*305 datapath_FIR_Reg_coeff4_n20
*306 datapath_FIR_Reg_coeff4_n19
*307 datapath_FIR_Reg_coeff4_n18
*308 datapath_FIR_Reg_coeff4_n7
*309 datapath_FIR_Reg_coeff4_n6
*310 datapath_FIR_Reg_coeff4_n5
*311 datapath_FIR_Reg_coeff4_n4
*312 datapath_FIR_Reg_coeff4_n3
*313 datapath_FIR_Reg_coeff4_n2
*314 datapath_FIR_Reg_coeff4_n1
*315 datapath_FIR_Reg_coeff5_n30
*316 datapath_FIR_Reg_coeff5_n29
*317 datapath_FIR_Reg_coeff5_n28
*318 datapath_FIR_Reg_coeff5_n27
*319 datapath_FIR_Reg_coeff5_n26
*320 datapath_FIR_Reg_coeff5_n25
*321 datapath_FIR_Reg_coeff5_n24
*322 datapath_FIR_Reg_coeff5_n23
*323 datapath_FIR_Reg_coeff5_n22
*324 datapath_FIR_Reg_coeff5_n20
*325 datapath_FIR_Reg_coeff5_n19
*326 datapath_FIR_Reg_coeff5_n18
*327 datapath_FIR_Reg_coeff5_n8
*328 datapath_FIR_Reg_coeff5_n7
*329 datapath_FIR_Reg_coeff5_n6
*330 datapath_FIR_Reg_coeff5_n5
*331 datapath_FIR_Reg_coeff5_n4
*332 datapath_FIR_Reg_coeff5_n3
*333 datapath_FIR_Reg_coeff5_n2
*334 datapath_FIR_Reg_coeff5_n1
*335 datapath_FIR_Reg_coeff6_n26
*336 datapath_FIR_Reg_coeff6_n25
*337 datapath_FIR_Reg_coeff6_n24
*338 datapath_FIR_Reg_coeff6_n23
*339 datapath_FIR_Reg_coeff6_n22
*340 datapath_FIR_Reg_coeff6_n21
*341 datapath_FIR_Reg_coeff6_n20
*342 datapath_FIR_Reg_coeff6_n19
*343 datapath_FIR_Reg_coeff6_n18
*344 datapath_FIR_Reg_coeff6_n7
*345 datapath_FIR_Reg_coeff6_n6
*346 datapath_FIR_Reg_coeff6_n5
*347 datapath_FIR_Reg_coeff6_n4
*348 datapath_FIR_Reg_coeff6_n3
*349 datapath_FIR_Reg_coeff6_n2
*350 datapath_FIR_Reg_coeff6_n1
*351 datapath_FIR_Reg_coeff7_n27
*352 datapath_FIR_Reg_coeff7_n26
*353 datapath_FIR_Reg_coeff7_n25
*354 datapath_FIR_Reg_coeff7_n24
*355 datapath_FIR_Reg_coeff7_n23
*356 datapath_FIR_Reg_coeff7_n22
*357 datapath_FIR_Reg_coeff7_n21
*358 datapath_FIR_Reg_coeff7_n20
*359 datapath_FIR_Reg_coeff7_n19
*360 datapath_FIR_Reg_coeff7_n8
*361 datapath_FIR_Reg_coeff7_n7
*362 datapath_FIR_Reg_coeff7_n6
*363 datapath_FIR_Reg_coeff7_n5
*364 datapath_FIR_Reg_coeff7_n4
*365 datapath_FIR_Reg_coeff7_n3
*366 datapath_FIR_Reg_coeff7_n2
*367 datapath_FIR_Reg_coeff8_n28
*368 datapath_FIR_Reg_coeff8_n27
*369 datapath_FIR_Reg_coeff8_n26
*370 datapath_FIR_Reg_coeff8_n25
*371 datapath_FIR_Reg_coeff8_n24
*372 datapath_FIR_Reg_coeff8_n23
*373 datapath_FIR_Reg_coeff8_n22
*374 datapath_FIR_Reg_coeff8_n21
*375 datapath_FIR_Reg_coeff8_n20
*376 datapath_FIR_Reg_coeff8_n18
*377 datapath_FIR_Reg_coeff8_n8
*378 datapath_FIR_Reg_coeff8_n7
*379 datapath_FIR_Reg_coeff8_n6
*380 datapath_FIR_Reg_coeff8_n5
*381 datapath_FIR_Reg_coeff8_n4
*382 datapath_FIR_Reg_coeff8_n3
*383 datapath_FIR_Reg_coeff8_n2
*384 datapath_FIR_Reg_coeff8_n1
*385 datapath_FIR_Reg_Sample1_n26
*386 datapath_FIR_Reg_Sample1_n25
*387 datapath_FIR_Reg_Sample1_n24
*388 datapath_FIR_Reg_Sample1_n23
*389 datapath_FIR_Reg_Sample1_n22
*390 datapath_FIR_Reg_Sample1_n21
*391 datapath_FIR_Reg_Sample1_n20
*392 datapath_FIR_Reg_Sample1_n19
*393 datapath_FIR_Reg_Sample1_n18
*394 datapath_FIR_Reg_Sample1_n7
*395 datapath_FIR_Reg_Sample1_n6
*396 datapath_FIR_Reg_Sample1_n5
*397 datapath_FIR_Reg_Sample1_n4
*398 datapath_FIR_Reg_Sample1_n3
*399 datapath_FIR_Reg_Sample1_n2
*400 datapath_FIR_Reg_Sample1_n1
*401 datapath_FIR_Reg_Sample2_n26
*402 datapath_FIR_Reg_Sample2_n25
*403 datapath_FIR_Reg_Sample2_n24
*404 datapath_FIR_Reg_Sample2_n23
*405 datapath_FIR_Reg_Sample2_n22
*406 datapath_FIR_Reg_Sample2_n21
*407 datapath_FIR_Reg_Sample2_n20
*408 datapath_FIR_Reg_Sample2_n19
*409 datapath_FIR_Reg_Sample2_n18
*410 datapath_FIR_Reg_Sample2_n7
*411 datapath_FIR_Reg_Sample2_n6
*412 datapath_FIR_Reg_Sample2_n5
*413 datapath_FIR_Reg_Sample2_n4
*414 datapath_FIR_Reg_Sample2_n3
*415 datapath_FIR_Reg_Sample2_n2
*416 datapath_FIR_Reg_Sample2_n1
*417 datapath_FIR_Reg_Sample3_n29
*418 datapath_FIR_Reg_Sample3_n28
*419 datapath_FIR_Reg_Sample3_n27
*420 datapath_FIR_Reg_Sample3_n26
*421 datapath_FIR_Reg_Sample3_n25
*422 datapath_FIR_Reg_Sample3_n24
*423 datapath_FIR_Reg_Sample3_n23
*424 datapath_FIR_Reg_Sample3_n22
*425 datapath_FIR_Reg_Sample3_n21
*426 datapath_FIR_Reg_Sample3_n19
*427 datapath_FIR_Reg_Sample3_n18
*428 datapath_FIR_Reg_Sample3_n8
*429 datapath_FIR_Reg_Sample3_n7
*430 datapath_FIR_Reg_Sample3_n6
*431 datapath_FIR_Reg_Sample3_n5
*432 datapath_FIR_Reg_Sample3_n4
*433 datapath_FIR_Reg_Sample3_n3
*434 datapath_FIR_Reg_Sample3_n2
*435 datapath_FIR_Reg_Sample4_n26
*436 datapath_FIR_Reg_Sample4_n25
*437 datapath_FIR_Reg_Sample4_n24
*438 datapath_FIR_Reg_Sample4_n23
*439 datapath_FIR_Reg_Sample4_n22
*440 datapath_FIR_Reg_Sample4_n21
*441 datapath_FIR_Reg_Sample4_n20
*442 datapath_FIR_Reg_Sample4_n19
*443 datapath_FIR_Reg_Sample4_n18
*444 datapath_FIR_Reg_Sample4_n7
*445 datapath_FIR_Reg_Sample4_n6
*446 datapath_FIR_Reg_Sample4_n5
*447 datapath_FIR_Reg_Sample4_n4
*448 datapath_FIR_Reg_Sample4_n3
*449 datapath_FIR_Reg_Sample4_n2
*450 datapath_FIR_Reg_Sample4_n1
*451 datapath_FIR_Reg_Sample5_n33
*452 datapath_FIR_Reg_Sample5_n32
*453 datapath_FIR_Reg_Sample5_n31
*454 datapath_FIR_Reg_Sample5_n30
*455 datapath_FIR_Reg_Sample5_n29
*456 datapath_FIR_Reg_Sample5_n28
*457 datapath_FIR_Reg_Sample5_n27
*458 datapath_FIR_Reg_Sample5_n26
*459 datapath_FIR_Reg_Sample5_n25
*460 datapath_FIR_Reg_Sample5_n23
*461 datapath_FIR_Reg_Sample5_n22
*462 datapath_FIR_Reg_Sample5_n21
*463 datapath_FIR_Reg_Sample5_n20
*464 datapath_FIR_Reg_Sample5_n19
*465 datapath_FIR_Reg_Sample5_n18
*466 datapath_FIR_Reg_Sample5_n8
*467 datapath_FIR_Reg_Sample5_n6
*468 datapath_FIR_Reg_Sample5_n5
*469 datapath_FIR_Reg_Sample5_n4
*470 datapath_FIR_Reg_Sample5_n3
*471 datapath_FIR_Reg_Sample5_n2
*472 datapath_FIR_Reg_Sample5_n1
*473 datapath_FIR_Reg_Sample6_n26
*474 datapath_FIR_Reg_Sample6_n25
*475 datapath_FIR_Reg_Sample6_n24
*476 datapath_FIR_Reg_Sample6_n23
*477 datapath_FIR_Reg_Sample6_n22
*478 datapath_FIR_Reg_Sample6_n21
*479 datapath_FIR_Reg_Sample6_n20
*480 datapath_FIR_Reg_Sample6_n19
*481 datapath_FIR_Reg_Sample6_n18
*482 datapath_FIR_Reg_Sample6_n7
*483 datapath_FIR_Reg_Sample6_n6
*484 datapath_FIR_Reg_Sample6_n5
*485 datapath_FIR_Reg_Sample6_n4
*486 datapath_FIR_Reg_Sample6_n3
*487 datapath_FIR_Reg_Sample6_n2
*488 datapath_FIR_Reg_Sample6_n1
*489 datapath_FIR_Reg_Sample7_n29
*490 datapath_FIR_Reg_Sample7_n28
*491 datapath_FIR_Reg_Sample7_n27
*492 datapath_FIR_Reg_Sample7_n26
*493 datapath_FIR_Reg_Sample7_n25
*494 datapath_FIR_Reg_Sample7_n24
*495 datapath_FIR_Reg_Sample7_n23
*496 datapath_FIR_Reg_Sample7_n22
*497 datapath_FIR_Reg_Sample7_n21
*498 datapath_FIR_Reg_Sample7_n19
*499 datapath_FIR_Reg_Sample7_n18
*500 datapath_FIR_Reg_Sample7_n8
*501 datapath_FIR_Reg_Sample7_n7
*502 datapath_FIR_Reg_Sample7_n6
*503 datapath_FIR_Reg_Sample7_n5
*504 datapath_FIR_Reg_Sample7_n4
*505 datapath_FIR_Reg_Sample7_n2
*506 datapath_FIR_Reg_Sample7_n1
*507 datapath_FIR_Reg_Sample8_n30
*508 datapath_FIR_Reg_Sample8_n29
*509 datapath_FIR_Reg_Sample8_n28
*510 datapath_FIR_Reg_Sample8_n27
*511 datapath_FIR_Reg_Sample8_n26
*512 datapath_FIR_Reg_Sample8_n25
*513 datapath_FIR_Reg_Sample8_n24
*514 datapath_FIR_Reg_Sample8_n23
*515 datapath_FIR_Reg_Sample8_n22
*516 datapath_FIR_Reg_Sample8_n20
*517 datapath_FIR_Reg_Sample8_n19
*518 datapath_FIR_Reg_Sample8_n18
*519 datapath_FIR_Reg_Sample8_n8
*520 datapath_FIR_Reg_Sample8_n7
*521 datapath_FIR_Reg_Sample8_n6
*522 datapath_FIR_Reg_Sample8_n5
*523 datapath_FIR_Reg_Sample8_n4
*524 datapath_FIR_Reg_Sample8_n3
*525 datapath_FIR_Reg_Sample8_n2
*526 datapath_FIR_Reg_Sample8_n1
*527 datapath_FIR_Reg_out_n26
*528 datapath_FIR_Reg_out_n25
*529 datapath_FIR_Reg_out_n24
*530 datapath_FIR_Reg_out_n23
*531 datapath_FIR_Reg_out_n22
*532 datapath_FIR_Reg_out_n21
*533 datapath_FIR_Reg_out_n20
*534 datapath_FIR_Reg_out_n19
*535 datapath_FIR_Reg_out_n18
*536 datapath_FIR_Reg_out_n7
*537 datapath_FIR_Reg_out_n6
*538 datapath_FIR_Reg_out_n5
*539 datapath_FIR_Reg_out_n4
*540 datapath_FIR_Reg_out_n3
*541 datapath_FIR_Reg_out_n2
*542 datapath_FIR_Reg_out_n1
*543 datapath_FIR_mult_205_n184
*544 datapath_FIR_mult_205_n183
*545 datapath_FIR_mult_205_n182
*546 datapath_FIR_mult_205_n181
*547 datapath_FIR_mult_205_n180
*548 datapath_FIR_mult_205_n179
*549 datapath_FIR_mult_205_n178
*550 datapath_FIR_mult_205_n177
*551 datapath_FIR_mult_205_n176
*552 datapath_FIR_mult_205_n175
*553 datapath_FIR_mult_205_n174
*554 datapath_FIR_mult_205_n173
*555 datapath_FIR_mult_205_n172
*556 datapath_FIR_mult_205_n171
*557 datapath_FIR_mult_205_n170
*558 datapath_FIR_mult_205_n169
*559 datapath_FIR_mult_205_n168
*560 datapath_FIR_mult_205_n167
*561 datapath_FIR_mult_205_n166
*562 datapath_FIR_mult_205_n165
*563 datapath_FIR_mult_205_n164
*564 datapath_FIR_mult_205_n163
*565 datapath_FIR_mult_205_n162
*566 datapath_FIR_mult_205_n161
*567 datapath_FIR_mult_205_n160
*568 datapath_FIR_mult_205_n119
*569 datapath_FIR_mult_205_n118
*570 datapath_FIR_mult_205_n117
*571 datapath_FIR_mult_205_n116
*572 datapath_FIR_mult_205_n115
*573 datapath_FIR_mult_205_n113
*574 datapath_FIR_mult_205_n112
*575 datapath_FIR_mult_205_n111
*576 datapath_FIR_mult_205_n110
*577 datapath_FIR_mult_205_n109
*578 datapath_FIR_mult_205_n108
*579 datapath_FIR_mult_205_n106
*580 datapath_FIR_mult_205_n105
*581 datapath_FIR_mult_205_n104
*582 datapath_FIR_mult_205_n103
*583 datapath_FIR_mult_205_n102
*584 datapath_FIR_mult_205_n101
*585 datapath_FIR_mult_205_n100
*586 datapath_FIR_mult_205_n99
*587 datapath_FIR_mult_205_n98
*588 datapath_FIR_mult_205_n97
*589 datapath_FIR_mult_205_n95
*590 datapath_FIR_mult_205_n94
*591 datapath_FIR_mult_205_n93
*592 datapath_FIR_mult_205_n92
*593 datapath_FIR_mult_205_n91
*594 datapath_FIR_mult_205_n90
*595 datapath_FIR_mult_205_n89
*596 datapath_FIR_mult_205_n88
*597 datapath_FIR_mult_205_n87
*598 datapath_FIR_mult_205_n86
*599 datapath_FIR_mult_205_n85
*600 datapath_FIR_mult_205_n83
*601 datapath_FIR_mult_205_n82
*602 datapath_FIR_mult_205_n81
*603 datapath_FIR_mult_205_n80
*604 datapath_FIR_mult_205_n79
*605 datapath_FIR_mult_205_n78
*606 datapath_FIR_mult_205_n77
*607 datapath_FIR_mult_205_n76
*608 datapath_FIR_mult_205_n75
*609 datapath_FIR_mult_205_n74
*610 datapath_FIR_mult_205_n72
*611 datapath_FIR_mult_205_n71
*612 datapath_FIR_mult_205_n70
*613 datapath_FIR_mult_205_n69
*614 datapath_FIR_mult_205_n68
*615 datapath_FIR_mult_205_n67
*616 datapath_FIR_mult_205_n66
*617 datapath_FIR_mult_205_n65
*618 datapath_FIR_mult_205_n64
*619 datapath_FIR_mult_205_n63
*620 datapath_FIR_mult_205_n62
*621 datapath_FIR_mult_205_n61
*622 datapath_FIR_mult_205_n60
*623 datapath_FIR_mult_205_n59
*624 datapath_FIR_mult_205_n58
*625 datapath_FIR_mult_205_n57
*626 datapath_FIR_mult_205_n56
*627 datapath_FIR_mult_205_n55
*628 datapath_FIR_mult_205_n54
*629 datapath_FIR_mult_205_n53
*630 datapath_FIR_mult_205_n52
*631 datapath_FIR_mult_205_n51
*632 datapath_FIR_mult_205_n50
*633 datapath_FIR_mult_205_n49
*634 datapath_FIR_mult_205_n48
*635 datapath_FIR_mult_205_n47
*636 datapath_FIR_mult_205_n46
*637 datapath_FIR_mult_205_n45
*638 datapath_FIR_mult_205_n44
*639 datapath_FIR_mult_205_n43
*640 datapath_FIR_mult_205_n42
*641 datapath_FIR_mult_205_n41
*642 datapath_FIR_mult_205_n40
*643 datapath_FIR_mult_205_n39
*644 datapath_FIR_mult_205_n38
*645 datapath_FIR_mult_205_n37
*646 datapath_FIR_mult_205_n36
*647 datapath_FIR_mult_205_n35
*648 datapath_FIR_mult_205_n34
*649 datapath_FIR_mult_205_n33
*650 datapath_FIR_mult_205_n32
*651 datapath_FIR_mult_205_n31
*652 datapath_FIR_mult_205_n30
*653 datapath_FIR_mult_205_n29
*654 datapath_FIR_mult_205_n28
*655 datapath_FIR_mult_205_n27
*656 datapath_FIR_mult_205_n26
*657 datapath_FIR_mult_205_n25
*658 datapath_FIR_mult_205_n24
*659 datapath_FIR_mult_205_n23
*660 datapath_FIR_mult_205_n22
*661 datapath_FIR_mult_205_n21
*662 datapath_FIR_mult_205_n20
*663 datapath_FIR_mult_205_n19
*664 datapath_FIR_mult_205_n18
*665 datapath_FIR_mult_205_n17
*666 datapath_FIR_mult_205_n16
*667 datapath_FIR_mult_205_n15
*668 datapath_FIR_mult_205_n14
*669 datapath_FIR_mult_205_n13
*670 datapath_FIR_mult_205_n8
*671 datapath_FIR_mult_205_n7
*672 datapath_FIR_mult_205_n6
*673 datapath_FIR_mult_205_n5
*674 datapath_FIR_mult_205_n4
*675 datapath_FIR_mult_205_n3
*676 datapath_FIR_mult_205_n2
*677 datapath_FIR_mult_206_n188
*678 datapath_FIR_mult_206_n187
*679 datapath_FIR_mult_206_n186
*680 datapath_FIR_mult_206_n185
*681 datapath_FIR_mult_206_n184
*682 datapath_FIR_mult_206_n183
*683 datapath_FIR_mult_206_n182
*684 datapath_FIR_mult_206_n181
*685 datapath_FIR_mult_206_n180
*686 datapath_FIR_mult_206_n179
*687 datapath_FIR_mult_206_n178
*688 datapath_FIR_mult_206_n177
*689 datapath_FIR_mult_206_n176
*690 datapath_FIR_mult_206_n175
*691 datapath_FIR_mult_206_n174
*692 datapath_FIR_mult_206_n173
*693 datapath_FIR_mult_206_n172
*694 datapath_FIR_mult_206_n171
*695 datapath_FIR_mult_206_n170
*696 datapath_FIR_mult_206_n169
*697 datapath_FIR_mult_206_n168
*698 datapath_FIR_mult_206_n167
*699 datapath_FIR_mult_206_n166
*700 datapath_FIR_mult_206_n165
*701 datapath_FIR_mult_206_n164
*702 datapath_FIR_mult_206_n163
*703 datapath_FIR_mult_206_n162
*704 datapath_FIR_mult_206_n161
*705 datapath_FIR_mult_206_n160
*706 datapath_FIR_mult_206_n119
*707 datapath_FIR_mult_206_n118
*708 datapath_FIR_mult_206_n117
*709 datapath_FIR_mult_206_n116
*710 datapath_FIR_mult_206_n115
*711 datapath_FIR_mult_206_n113
*712 datapath_FIR_mult_206_n112
*713 datapath_FIR_mult_206_n111
*714 datapath_FIR_mult_206_n110
*715 datapath_FIR_mult_206_n109
*716 datapath_FIR_mult_206_n108
*717 datapath_FIR_mult_206_n106
*718 datapath_FIR_mult_206_n105
*719 datapath_FIR_mult_206_n104
*720 datapath_FIR_mult_206_n103
*721 datapath_FIR_mult_206_n102
*722 datapath_FIR_mult_206_n101
*723 datapath_FIR_mult_206_n100
*724 datapath_FIR_mult_206_n99
*725 datapath_FIR_mult_206_n98
*726 datapath_FIR_mult_206_n97
*727 datapath_FIR_mult_206_n95
*728 datapath_FIR_mult_206_n94
*729 datapath_FIR_mult_206_n93
*730 datapath_FIR_mult_206_n92
*731 datapath_FIR_mult_206_n91
*732 datapath_FIR_mult_206_n90
*733 datapath_FIR_mult_206_n89
*734 datapath_FIR_mult_206_n88
*735 datapath_FIR_mult_206_n87
*736 datapath_FIR_mult_206_n86
*737 datapath_FIR_mult_206_n85
*738 datapath_FIR_mult_206_n83
*739 datapath_FIR_mult_206_n82
*740 datapath_FIR_mult_206_n81
*741 datapath_FIR_mult_206_n80
*742 datapath_FIR_mult_206_n79
*743 datapath_FIR_mult_206_n78
*744 datapath_FIR_mult_206_n77
*745 datapath_FIR_mult_206_n76
*746 datapath_FIR_mult_206_n75
*747 datapath_FIR_mult_206_n74
*748 datapath_FIR_mult_206_n72
*749 datapath_FIR_mult_206_n71
*750 datapath_FIR_mult_206_n70
*751 datapath_FIR_mult_206_n69
*752 datapath_FIR_mult_206_n68
*753 datapath_FIR_mult_206_n67
*754 datapath_FIR_mult_206_n66
*755 datapath_FIR_mult_206_n65
*756 datapath_FIR_mult_206_n64
*757 datapath_FIR_mult_206_n63
*758 datapath_FIR_mult_206_n62
*759 datapath_FIR_mult_206_n61
*760 datapath_FIR_mult_206_n60
*761 datapath_FIR_mult_206_n59
*762 datapath_FIR_mult_206_n58
*763 datapath_FIR_mult_206_n57
*764 datapath_FIR_mult_206_n56
*765 datapath_FIR_mult_206_n55
*766 datapath_FIR_mult_206_n54
*767 datapath_FIR_mult_206_n53
*768 datapath_FIR_mult_206_n52
*769 datapath_FIR_mult_206_n51
*770 datapath_FIR_mult_206_n50
*771 datapath_FIR_mult_206_n49
*772 datapath_FIR_mult_206_n48
*773 datapath_FIR_mult_206_n47
*774 datapath_FIR_mult_206_n46
*775 datapath_FIR_mult_206_n45
*776 datapath_FIR_mult_206_n44
*777 datapath_FIR_mult_206_n43
*778 datapath_FIR_mult_206_n42
*779 datapath_FIR_mult_206_n41
*780 datapath_FIR_mult_206_n40
*781 datapath_FIR_mult_206_n39
*782 datapath_FIR_mult_206_n38
*783 datapath_FIR_mult_206_n37
*784 datapath_FIR_mult_206_n36
*785 datapath_FIR_mult_206_n35
*786 datapath_FIR_mult_206_n34
*787 datapath_FIR_mult_206_n33
*788 datapath_FIR_mult_206_n32
*789 datapath_FIR_mult_206_n31
*790 datapath_FIR_mult_206_n30
*791 datapath_FIR_mult_206_n29
*792 datapath_FIR_mult_206_n28
*793 datapath_FIR_mult_206_n27
*794 datapath_FIR_mult_206_n26
*795 datapath_FIR_mult_206_n25
*796 datapath_FIR_mult_206_n24
*797 datapath_FIR_mult_206_n23
*798 datapath_FIR_mult_206_n22
*799 datapath_FIR_mult_206_n21
*800 datapath_FIR_mult_206_n20
*801 datapath_FIR_mult_206_n19
*802 datapath_FIR_mult_206_n18
*803 datapath_FIR_mult_206_n17
*804 datapath_FIR_mult_206_n16
*805 datapath_FIR_mult_206_n15
*806 datapath_FIR_mult_206_n14
*807 datapath_FIR_mult_206_n13
*808 datapath_FIR_mult_206_n8
*809 datapath_FIR_mult_206_n7
*810 datapath_FIR_mult_206_n6
*811 datapath_FIR_mult_206_n5
*812 datapath_FIR_mult_206_n4
*813 datapath_FIR_mult_206_n3
*814 datapath_FIR_mult_206_n2
*815 datapath_FIR_mult_213_n224
*816 datapath_FIR_mult_213_n223
*817 datapath_FIR_mult_213_n222
*818 datapath_FIR_mult_213_n221
*819 datapath_FIR_mult_213_n220
*820 datapath_FIR_mult_213_n219
*821 datapath_FIR_mult_213_n217
*822 datapath_FIR_mult_213_n216
*823 datapath_FIR_mult_213_n215
*824 datapath_FIR_mult_213_n214
*825 datapath_FIR_mult_213_n212
*826 datapath_FIR_mult_213_n211
*827 datapath_FIR_mult_213_n210
*828 datapath_FIR_mult_213_n209
*829 datapath_FIR_mult_213_n208
*830 datapath_FIR_mult_213_n207
*831 datapath_FIR_mult_213_n206
*832 datapath_FIR_mult_213_n205
*833 datapath_FIR_mult_213_n204
*834 datapath_FIR_mult_213_n203
*835 datapath_FIR_mult_213_n202
*836 datapath_FIR_mult_213_n201
*837 datapath_FIR_mult_213_n200
*838 datapath_FIR_mult_213_n199
*839 datapath_FIR_mult_213_n195
*840 datapath_FIR_mult_213_n194
*841 datapath_FIR_mult_213_n193
*842 datapath_FIR_mult_213_n192
*843 datapath_FIR_mult_213_n191
*844 datapath_FIR_mult_213_n190
*845 datapath_FIR_mult_213_n189
*846 datapath_FIR_mult_213_n188
*847 datapath_FIR_mult_213_n187
*848 datapath_FIR_mult_213_n186
*849 datapath_FIR_mult_213_n185
*850 datapath_FIR_mult_213_n184
*851 datapath_FIR_mult_213_n182
*852 datapath_FIR_mult_213_n181
*853 datapath_FIR_mult_213_n180
*854 datapath_FIR_mult_213_n179
*855 datapath_FIR_mult_213_n178
*856 datapath_FIR_mult_213_n177
*857 datapath_FIR_mult_213_n176
*858 datapath_FIR_mult_213_n175
*859 datapath_FIR_mult_213_n174
*860 datapath_FIR_mult_213_n173
*861 datapath_FIR_mult_213_n169
*862 datapath_FIR_mult_213_n168
*863 datapath_FIR_mult_213_n167
*864 datapath_FIR_mult_213_n166
*865 datapath_FIR_mult_213_n161
*866 datapath_FIR_mult_213_n160
*867 datapath_FIR_mult_213_n119
*868 datapath_FIR_mult_213_n118
*869 datapath_FIR_mult_213_n117
*870 datapath_FIR_mult_213_n116
*871 datapath_FIR_mult_213_n115
*872 datapath_FIR_mult_213_n113
*873 datapath_FIR_mult_213_n112
*874 datapath_FIR_mult_213_n111
*875 datapath_FIR_mult_213_n110
*876 datapath_FIR_mult_213_n109
*877 datapath_FIR_mult_213_n108
*878 datapath_FIR_mult_213_n106
*879 datapath_FIR_mult_213_n105
*880 datapath_FIR_mult_213_n104
*881 datapath_FIR_mult_213_n103
*882 datapath_FIR_mult_213_n102
*883 datapath_FIR_mult_213_n101
*884 datapath_FIR_mult_213_n100
*885 datapath_FIR_mult_213_n99
*886 datapath_FIR_mult_213_n98
*887 datapath_FIR_mult_213_n97
*888 datapath_FIR_mult_213_n95
*889 datapath_FIR_mult_213_n94
*890 datapath_FIR_mult_213_n93
*891 datapath_FIR_mult_213_n92
*892 datapath_FIR_mult_213_n91
*893 datapath_FIR_mult_213_n90
*894 datapath_FIR_mult_213_n89
*895 datapath_FIR_mult_213_n88
*896 datapath_FIR_mult_213_n87
*897 datapath_FIR_mult_213_n86
*898 datapath_FIR_mult_213_n85
*899 datapath_FIR_mult_213_n83
*900 datapath_FIR_mult_213_n82
*901 datapath_FIR_mult_213_n81
*902 datapath_FIR_mult_213_n80
*903 datapath_FIR_mult_213_n79
*904 datapath_FIR_mult_213_n78
*905 datapath_FIR_mult_213_n77
*906 datapath_FIR_mult_213_n76
*907 datapath_FIR_mult_213_n75
*908 datapath_FIR_mult_213_n74
*909 datapath_FIR_mult_213_n72
*910 datapath_FIR_mult_213_n71
*911 datapath_FIR_mult_213_n70
*912 datapath_FIR_mult_213_n69
*913 datapath_FIR_mult_213_n68
*914 datapath_FIR_mult_213_n67
*915 datapath_FIR_mult_213_n66
*916 datapath_FIR_mult_213_n65
*917 datapath_FIR_mult_213_n64
*918 datapath_FIR_mult_213_n63
*919 datapath_FIR_mult_213_n62
*920 datapath_FIR_mult_213_n61
*921 datapath_FIR_mult_213_n60
*922 datapath_FIR_mult_213_n58
*923 datapath_FIR_mult_213_n57
*924 datapath_FIR_mult_213_n56
*925 datapath_FIR_mult_213_n55
*926 datapath_FIR_mult_213_n53
*927 datapath_FIR_mult_213_n52
*928 datapath_FIR_mult_213_n51
*929 datapath_FIR_mult_213_n50
*930 datapath_FIR_mult_213_n49
*931 datapath_FIR_mult_213_n48
*932 datapath_FIR_mult_213_n47
*933 datapath_FIR_mult_213_n46
*934 datapath_FIR_mult_213_n45
*935 datapath_FIR_mult_213_n44
*936 datapath_FIR_mult_213_n43
*937 datapath_FIR_mult_213_n42
*938 datapath_FIR_mult_213_n41
*939 datapath_FIR_mult_213_n40
*940 datapath_FIR_mult_213_n39
*941 datapath_FIR_mult_213_n38
*942 datapath_FIR_mult_213_n37
*943 datapath_FIR_mult_213_n36
*944 datapath_FIR_mult_213_n35
*945 datapath_FIR_mult_213_n34
*946 datapath_FIR_mult_213_n33
*947 datapath_FIR_mult_213_n32
*948 datapath_FIR_mult_213_n31
*949 datapath_FIR_mult_213_n30
*950 datapath_FIR_mult_213_n29
*951 datapath_FIR_mult_213_n28
*952 datapath_FIR_mult_213_n27
*953 datapath_FIR_mult_213_n26
*954 datapath_FIR_mult_213_n25
*955 datapath_FIR_mult_213_n24
*956 datapath_FIR_mult_213_n23
*957 datapath_FIR_mult_213_n22
*958 datapath_FIR_mult_213_n21
*959 datapath_FIR_mult_213_n20
*960 datapath_FIR_mult_213_n19
*961 datapath_FIR_mult_213_n18
*962 datapath_FIR_mult_213_n17
*963 datapath_FIR_mult_213_n16
*964 datapath_FIR_mult_213_n15
*965 datapath_FIR_mult_213_n14
*966 datapath_FIR_mult_213_n13
*967 datapath_FIR_mult_213_n8
*968 datapath_FIR_mult_213_n7
*969 datapath_FIR_mult_213_n6
*970 datapath_FIR_mult_213_n5
*971 datapath_FIR_mult_213_n4
*972 datapath_FIR_mult_213_n3
*973 datapath_FIR_mult_213_n2
*974 datapath_FIR_mult_210_n229
*975 datapath_FIR_mult_210_n228
*976 datapath_FIR_mult_210_n227
*977 datapath_FIR_mult_210_n226
*978 datapath_FIR_mult_210_n225
*979 datapath_FIR_mult_210_n224
*980 datapath_FIR_mult_210_n223
*981 datapath_FIR_mult_210_n222
*982 datapath_FIR_mult_210_n221
*983 datapath_FIR_mult_210_n220
*984 datapath_FIR_mult_210_n219
*985 datapath_FIR_mult_210_n217
*986 datapath_FIR_mult_210_n215
*987 datapath_FIR_mult_210_n214
*988 datapath_FIR_mult_210_n213
*989 datapath_FIR_mult_210_n212
*990 datapath_FIR_mult_210_n211
*991 datapath_FIR_mult_210_n210
*992 datapath_FIR_mult_210_n209
*993 datapath_FIR_mult_210_n208
*994 datapath_FIR_mult_210_n206
*995 datapath_FIR_mult_210_n205
*996 datapath_FIR_mult_210_n204
*997 datapath_FIR_mult_210_n203
*998 datapath_FIR_mult_210_n202
*999 datapath_FIR_mult_210_n201
*1000 datapath_FIR_mult_210_n200
*1001 datapath_FIR_mult_210_n199
*1002 datapath_FIR_mult_210_n198
*1003 datapath_FIR_mult_210_n197
*1004 datapath_FIR_mult_210_n196
*1005 datapath_FIR_mult_210_n195
*1006 datapath_FIR_mult_210_n194
*1007 datapath_FIR_mult_210_n193
*1008 datapath_FIR_mult_210_n192
*1009 datapath_FIR_mult_210_n191
*1010 datapath_FIR_mult_210_n188
*1011 datapath_FIR_mult_210_n187
*1012 datapath_FIR_mult_210_n186
*1013 datapath_FIR_mult_210_n185
*1014 datapath_FIR_mult_210_n182
*1015 datapath_FIR_mult_210_n181
*1016 datapath_FIR_mult_210_n180
*1017 datapath_FIR_mult_210_n179
*1018 datapath_FIR_mult_210_n178